-------------------------------------------------------
          Amber 22 PMEMD                              2022
          -------------------------------------------------------

  [-O]verwriting output

File Assignments:

 Here is the input file:

1 ns solute restrained NPT equilibration using Langevin thermostat and MC baros
&cntrl
  irest     = 1,
  ntx       = 5,
  ig        = -1,
  dt        = 0.002,
  nstlim    = 500000,
  nscm      = 500,
  ntr       = 1,
  restraint_wt  = 1.0,
  restraintmask = '!:WAT & !@H',
  ntb       = 2,
  ntp       = 1,
  barostat  = 2,
  pres0     = 1.0,
  mcbarint  = 100,
  comp      = 44.6,
  taup      = 1.0,
  ntt       = 3,
  temp0     = 298.0,
  gamma_ln  = 1.0,
  ntf       = 2,
  ntc       = 2,
  cut       = 10.0,
  ntpr      = 500,
  ntxo      = 2,
  ntwr      = 500000,
  ioutfm    = 1,
  ntwx      = 500,
  iwrap     = 1,
&end

Note: ig = -1. Setting random seed to   738454 based on wallclock time in
      microseconds and disabling the synchronization of random numbers
      between tasks to improve performance.

--------------------------------------------------------------------------------
   1.  RESOURCE   USE:
--------------------------------------------------------------------------------

 getting box info from netcdf restart file
 NATOM  =   34070 NTYPES =      17 NBONH =   32696 MBONA  =    1401
 NTHETH =    3148 MTHETA =    1896 NPHIH =    5996 MPHIA  =    6496
 NHPARM =       0 NPARM  =       0 NNB   =   56972 NRES   =   10618
 NBONA  =    1401 NTHETA =    1896 NPHIA =    6496 NUMBND =      85
 NUMANG =     200 NPTRA  =     425 NATYP =      42 NPHB   =       0
 IFBOX  =       2 NMXRS  =      24 IFCAP =       0 NEXTRA =       0
 NCOPY  =       0

     BOX TYPE: TRUNCATED OCTAHEDRON

--------------------------------------------------------------------------------
   2.  CONTROL  DATA  FOR  THE  RUN
--------------------------------------------------------------------------------

default_name

General flags:
     imin    =       0, nmropt  =       0

Nature and format of input:
     ntx     =       5, irest   =       1, ntrx    =       1

Nature and format of output:
     ntxo    =       2, ntpr    =     500, ntrx    =       1, ntwr    =  500000
     iwrap   =       1, ntwx    =     500, ntwv    =       0, ntwe    =       0
     ioutfm  =       1, ntwprt  =       0, idecomp =       0, rbornstat=      0

Potential function:
     ntf     =       2, ntb     =       2, igb     =       0, nsnb    =      25
     ipol    =       0, gbsa    =       0, iesp    =       0
     dielc   =   1.00000, cut     =  10.00000, intdiel =   1.00000

Frozen or restrained atoms:
     ibelly  =       0, ntr     =       1
     restraint_wt =   1.00000

Molecular dynamics:
     nstlim  =    500000, nscm    =         0, nrespa  =         1
     t       =   0.00000, dt      =   0.00200, vlimit  =  20.00000

Langevin dynamics temperature regulation:
     ig      =  738454
     temp0   = 298.00000, tempi   =   0.00000, gamma_ln=   1.00000

Pressure regulation:
     ntp     =       1
     pres0   =   1.00000, comp    =  44.60000, taup    =   1.00000
     Monte-Carlo Barostat:
     mcbarint  =     100

SHAKE:
     ntc     =       2, jfastw  =       0
     tol     =   0.00001

Ewald parameters:
     verbose =       0, ew_type =       0, nbflag  =       1, use_pme =       1
     vdwmeth =       1, eedmeth =       1, netfrc  =       1
     Box X =   79.604   Box Y =   79.604   Box Z =   79.604
     Alpha =  109.471   Beta  =  109.471   Gamma =  109.471
     NFFT1 =   80       NFFT2 =   80       NFFT3 =   80
     Cutoff=   10.000   Tol   =0.100E-04
     Ewald Coefficient =  0.27511
     Interpolation order =    4

    LOADING THE CONSTRAINED ATOMS AS GROUPS

   5.  REFERENCE ATOM COORDINATES

  default_name
     Mask !:WAT & !@H; matches  2588 atoms

--------------------------------------------------------------------------------
   3.  ATOMIC COORDINATES AND VELOCITIES
--------------------------------------------------------------------------------

default_name
 begin time read from input coords =    20.000 ps

 Number of triangulated 3-point waters found:    10440

     Sum of charges from parm topology file =  -0.00001137
     Forcing neutrality...

--------------------------------------------------------------------------------
   4.  RESULTS
 NSTEP =      500   TIME(PS) =      21.000  TEMP(K) =   297.44  PRESS =     0.0
 Etot   =   -107233.5782  EKtot   =     20543.8797  EPtot      =   -127777.4579
 BOND   =       539.4929  ANGLE   =      1598.6222  DIHED      =     -1452.9782
 1-4 NB =       646.5747  1-4 EEL =     10735.1963  VDWAALS    =     21247.3917
 EELEC  =   -161332.6898  EHBOND  =         0.0000  RESTRAINT  =       240.9322
 EAMBER (non-restraint)  =   -128018.3901
 EKCMT  =         0.0000  VIRIAL  =         0.0000  VOLUME     =    387245.2852
                                                    Density    =         0.8911
 Ewald error estimate:   0.5221E-04
 ------------------------------------------------------------------------------

      A V E R A G E S   O V E R    1000 S T E P S

 NSTEP =   500000   TIME(PS) =    1020.000  TEMP(K) =   297.97  PRESS =     0.0
 Etot   =   -110519.4830  EKtot   =     20580.4129  EPtot      =   -131099.8959
 BOND   =       559.4482  ANGLE   =      1573.3635  DIHED      =     -1475.4527
 1-4 NB =       652.5869  1-4 EEL =     10781.5886  VDWAALS    =     22749.2790
 EELEC  =   -166193.6026  EHBOND  =         0.0000  RESTRAINT  =       252.8932
 EAMBER (non-restraint)  =   -131352.7891
 EKCMT  =         0.0000  VIRIAL  =         0.0000  VOLUME     =    334953.9252
                                                    Density    =         1.0304
 Ewald error estimate:   0.7425E-04
 ------------------------------------------------------------------------------

      R M S  F L U C T U A T I O N S

 NSTEP =   500000   TIME(PS) =    1020.000  TEMP(K) =     1.66  PRESS =     0.0
 Etot   =       332.2868  EKtot   =       114.8236  EPtot      =       304.1977
 BOND   =        19.3201  ANGLE   =        29.8454  DIHED      =        14.2043
 1-4 NB =        10.3154  1-4 EEL =        30.5217  VDWAALS    =       213.5093
 EELEC  =       445.0222  EHBOND  =         0.0000  RESTRAINT  =         9.0544
 EAMBER (non-restraint)  =       295.1433
 EKCMT  =         0.0000  VIRIAL  =         0.0000  VOLUME     =      3828.4295
                                                    Density    =         0.0107
 Ewald error estimate:   0.5113E-04
 ------------------------------------------------------------------------------
