-------------------------------------------------------
          Amber 22 PMEMD                              2022
          -------------------------------------------------------

  [-O]verwriting output

File Assignments:

 Here is the input file:

1 ns solute restrained NPT equilibration using Langevin thermostat and MC baros
&cntrl
  irest     = 1,
  ntx       = 5,
  ig        = -1,
  dt        = 0.002,
  nstlim    = 500000,
  nscm      = 500,
  ntr       = 1,
  restraint_wt  = 1.0,
  restraintmask = '!:WAT & !@H',
  ntb       = 2,
  ntp       = 1,
  barostat  = 2,
  pres0     = 1.0,
  mcbarint  = 100,
  comp      = 44.6,
  taup      = 1.0,
  ntt       = 3,
  temp0     = 298.0,
  gamma_ln  = 1.0,
  ntf       = 2,
  ntc       = 2,
  cut       = 10.0,
  ntpr      = 500,
  ntxo      = 2,
  ntwr      = 500000,
  ioutfm    = 1,
  ntwx      = 500,
  iwrap     = 1,
&end

Note: ig = -1. Setting random seed to   763134 based on wallclock time in
      microseconds and disabling the synchronization of random numbers
      between tasks to improve performance.

--------------------------------------------------------------------------------
   1.  RESOURCE   USE:
--------------------------------------------------------------------------------

 getting box info from netcdf restart file
 NATOM  =   54644 NTYPES =      19 NBONH =   53266 MBONA  =    1402
 NTHETH =    3158 MTHETA =    1898 NPHIH =    6032 MPHIA  =    6482
 NHPARM =       0 NPARM  =       0 NNB   =   84430 NRES   =   17472
 NBONA  =    1402 NTHETA =    1898 NPHIA =    6482 NUMBND =      87
 NUMANG =     202 NPTRA  =     423 NATYP =      45 NPHB   =       0
 IFBOX  =       2 NMXRS  =      24 IFCAP =       0 NEXTRA =       0
 NCOPY  =       0

     BOX TYPE: TRUNCATED OCTAHEDRON

--------------------------------------------------------------------------------
   2.  CONTROL  DATA  FOR  THE  RUN
--------------------------------------------------------------------------------

default_name

General flags:
     imin    =       0, nmropt  =       0

Nature and format of input:
     ntx     =       5, irest   =       1, ntrx    =       1

Nature and format of output:
     ntxo    =       2, ntpr    =     500, ntrx    =       1, ntwr    =  500000
     iwrap   =       1, ntwx    =     500, ntwv    =       0, ntwe    =       0
     ioutfm  =       1, ntwprt  =       0, idecomp =       0, rbornstat=      0

Potential function:
     ntf     =       2, ntb     =       2, igb     =       0, nsnb    =      25
     ipol    =       0, gbsa    =       0, iesp    =       0
     dielc   =   1.00000, cut     =  10.00000, intdiel =   1.00000

Frozen or restrained atoms:
     ibelly  =       0, ntr     =       1
     restraint_wt =   1.00000

Molecular dynamics:
     nstlim  =    500000, nscm    =         0, nrespa  =         1
     t       =   0.00000, dt      =   0.00200, vlimit  =  20.00000

Langevin dynamics temperature regulation:
     ig      =  763134
     temp0   = 298.00000, tempi   =   0.00000, gamma_ln=   1.00000

Pressure regulation:
     ntp     =       1
     pres0   =   1.00000, comp    =  44.60000, taup    =   1.00000
     Monte-Carlo Barostat:
     mcbarint  =     100

SHAKE:
     ntc     =       2, jfastw  =       0
     tol     =   0.00001

Ewald parameters:
     verbose =       0, ew_type =       0, nbflag  =       1, use_pme =       1
     vdwmeth =       1, eedmeth =       1, netfrc  =       1
     Box X =   92.507   Box Y =   92.507   Box Z =   92.507
     Alpha =  109.471   Beta  =  109.471   Gamma =  109.471
     NFFT1 =   96       NFFT2 =   96       NFFT3 =   96
     Cutoff=   10.000   Tol   =0.100E-04
     Ewald Coefficient =  0.27511
     Interpolation order =    4

    LOADING THE CONSTRAINED ATOMS AS GROUPS

   5.  REFERENCE ATOM COORDINATES

  default_name
     Mask !:WAT & !@H; matches  2600 atoms

--------------------------------------------------------------------------------
   3.  ATOMIC COORDINATES AND VELOCITIES
--------------------------------------------------------------------------------

default_name
 begin time read from input coords =    20.000 ps

 Number of triangulated 3-point waters found:    17294

     Sum of charges from parm topology file =  -0.00001891
     Forcing neutrality...

--------------------------------------------------------------------------------
   4.  RESULTS
 NSTEP =      500   TIME(PS) =      21.000  TEMP(K) =   299.44  PRESS =     0.0
 Etot   =   -164539.6763  EKtot   =     32925.9254  EPtot      =   -197465.6017
 BOND   =       539.8004  ANGLE   =      1543.9555  DIHED      =     -1417.5777
 1-4 NB =       644.8313  1-4 EEL =     10659.3661  VDWAALS    =     33530.7910
 EELEC  =   -243221.6621  EHBOND  =         0.0000  RESTRAINT  =       254.8938
 EAMBER (non-restraint)  =   -197720.4955
 EKCMT  =         0.0000  VIRIAL  =         0.0000  VOLUME     =    603882.5700
                                                    Density    =         0.9111
 Ewald error estimate:   0.5067E-04
 ------------------------------------------------------------------------------

      A V E R A G E S   O V E R    1000 S T E P S

 NSTEP =   500000   TIME(PS) =    1020.000  TEMP(K) =   297.94  PRESS =     0.0
 Etot   =   -168569.1779  EKtot   =     32760.4302  EPtot      =   -201329.6081
 BOND   =       561.6602  ANGLE   =      1569.2702  DIHED      =     -1399.9851
 1-4 NB =       657.8769  1-4 EEL =     10655.2370  VDWAALS    =     34871.7414
 EELEC  =   -248534.5083  EHBOND  =         0.0000  RESTRAINT  =       289.0995
 EAMBER (non-restraint)  =   -201618.7076
 EKCMT  =         0.0000  VIRIAL  =         0.0000  VOLUME     =    545234.6084
                                                    Density    =         1.0092
 Ewald error estimate:   0.4784E-04
 ------------------------------------------------------------------------------

      R M S  F L U C T U A T I O N S

 NSTEP =   500000   TIME(PS) =    1020.000  TEMP(K) =     1.25  PRESS =     0.0
 Etot   =       355.1096  EKtot   =       137.2089  EPtot      =       318.2148
 BOND   =        19.6287  ANGLE   =        30.9332  DIHED      =        14.5357
 1-4 NB =        10.6245  1-4 EEL =        32.9706  VDWAALS    =       261.7167
 EELEC  =       459.7886  EHBOND  =         0.0000  RESTRAINT  =        10.5558
 EAMBER (non-restraint)  =       307.6590
 EKCMT  =         0.0000  VIRIAL  =         0.0000  VOLUME     =      3760.6902
                                                    Density    =         0.0065
 Ewald error estimate:   0.3693E-04
 ------------------------------------------------------------------------------
