-------------------------------------------------------
          Amber 22 PMEMD                              2022
          -------------------------------------------------------

  [-O]verwriting output

File Assignments:

 Here is the input file:

1 ns solute restrained NPT equilibration using Langevin thermostat and MC baros
&cntrl
  irest     = 1,
  ntx       = 5,
  ig        = -1,
  dt        = 0.002,
  nstlim    = 500000,
  nscm      = 500,
  ntr       = 1,
  restraint_wt  = 1.0,
  restraintmask = '!:WAT & !@H',
  ntb       = 2,
  ntp       = 1,
  barostat  = 2,
  pres0     = 1.0,
  mcbarint  = 100,
  comp      = 44.6,
  taup      = 1.0,
  ntt       = 3,
  temp0     = 298.0,
  gamma_ln  = 1.0,
  ntf       = 2,
  ntc       = 2,
  cut       = 10.0,
  ntpr      = 500,
  ntxo      = 2,
  ntwr      = 500000,
  ioutfm    = 1,
  ntwx      = 500,
  iwrap     = 1,
&end

Note: ig = -1. Setting random seed to   316393 based on wallclock time in
      microseconds and disabling the synchronization of random numbers
      between tasks to improve performance.

--------------------------------------------------------------------------------
   1.  RESOURCE   USE:
--------------------------------------------------------------------------------

 getting box info from netcdf restart file
 NATOM  =   54644 NTYPES =      19 NBONH =   53266 MBONA  =    1402
 NTHETH =    3158 MTHETA =    1898 NPHIH =    6032 MPHIA  =    6482
 NHPARM =       0 NPARM  =       0 NNB   =   84430 NRES   =   17472
 NBONA  =    1402 NTHETA =    1898 NPHIA =    6482 NUMBND =      87
 NUMANG =     202 NPTRA  =     423 NATYP =      45 NPHB   =       0
 IFBOX  =       2 NMXRS  =      24 IFCAP =       0 NEXTRA =       0
 NCOPY  =       0

     BOX TYPE: TRUNCATED OCTAHEDRON

--------------------------------------------------------------------------------
   2.  CONTROL  DATA  FOR  THE  RUN
--------------------------------------------------------------------------------

default_name

General flags:
     imin    =       0, nmropt  =       0

Nature and format of input:
     ntx     =       5, irest   =       1, ntrx    =       1

Nature and format of output:
     ntxo    =       2, ntpr    =     500, ntrx    =       1, ntwr    =  500000
     iwrap   =       1, ntwx    =     500, ntwv    =       0, ntwe    =       0
     ioutfm  =       1, ntwprt  =       0, idecomp =       0, rbornstat=      0

Potential function:
     ntf     =       2, ntb     =       2, igb     =       0, nsnb    =      25
     ipol    =       0, gbsa    =       0, iesp    =       0
     dielc   =   1.00000, cut     =  10.00000, intdiel =   1.00000

Frozen or restrained atoms:
     ibelly  =       0, ntr     =       1
     restraint_wt =   1.00000

Molecular dynamics:
     nstlim  =    500000, nscm    =         0, nrespa  =         1
     t       =   0.00000, dt      =   0.00200, vlimit  =  20.00000

Langevin dynamics temperature regulation:
     ig      =  316393
     temp0   = 298.00000, tempi   =   0.00000, gamma_ln=   1.00000

Pressure regulation:
     ntp     =       1
     pres0   =   1.00000, comp    =  44.60000, taup    =   1.00000
     Monte-Carlo Barostat:
     mcbarint  =     100

SHAKE:
     ntc     =       2, jfastw  =       0
     tol     =   0.00001

Ewald parameters:
     verbose =       0, ew_type =       0, nbflag  =       1, use_pme =       1
     vdwmeth =       1, eedmeth =       1, netfrc  =       1
     Box X =   92.507   Box Y =   92.507   Box Z =   92.507
     Alpha =  109.471   Beta  =  109.471   Gamma =  109.471
     NFFT1 =   96       NFFT2 =   96       NFFT3 =   96
     Cutoff=   10.000   Tol   =0.100E-04
     Ewald Coefficient =  0.27511
     Interpolation order =    4

    LOADING THE CONSTRAINED ATOMS AS GROUPS

   5.  REFERENCE ATOM COORDINATES

  default_name
     Mask !:WAT & !@H; matches  2600 atoms

--------------------------------------------------------------------------------
   3.  ATOMIC COORDINATES AND VELOCITIES
--------------------------------------------------------------------------------

default_name
 begin time read from input coords =    20.000 ps

 Number of triangulated 3-point waters found:    17294

     Sum of charges from parm topology file =  -0.00001891
     Forcing neutrality...

--------------------------------------------------------------------------------
   4.  RESULTS
 NSTEP =      500   TIME(PS) =      21.000  TEMP(K) =   300.13  PRESS =     0.0
 Etot   =   -164689.4175  EKtot   =     33002.0250  EPtot      =   -197691.4425
 BOND   =       555.8530  ANGLE   =      1577.5311  DIHED      =     -1370.8468
 1-4 NB =       648.0444  1-4 EEL =     10645.1670  VDWAALS    =     34364.3001
 EELEC  =   -244355.1070  EHBOND  =         0.0000  RESTRAINT  =       243.6158
 EAMBER (non-restraint)  =   -197935.0583
 EKCMT  =         0.0000  VIRIAL  =         0.0000  VOLUME     =    595840.9562
                                                    Density    =         0.9234
 Ewald error estimate:   0.2221E-04
 ------------------------------------------------------------------------------

      A V E R A G E S   O V E R    1000 S T E P S

 NSTEP =   500000   TIME(PS) =    1020.000  TEMP(K) =   298.15  PRESS =     0.0
 Etot   =   -168504.1106  EKtot   =     32783.3583  EPtot      =   -201287.4689
 BOND   =       558.5919  ANGLE   =      1564.0068  DIHED      =     -1390.3692
 1-4 NB =       658.9082  1-4 EEL =     10662.5607  VDWAALS    =     34865.6554
 EELEC  =   -248499.8653  EHBOND  =         0.0000  RESTRAINT  =       293.0426
 EAMBER (non-restraint)  =   -201580.5115
 EKCMT  =         0.0000  VIRIAL  =         0.0000  VOLUME     =    545279.8683
                                                    Density    =         1.0091
 Ewald error estimate:   0.4860E-04
 ------------------------------------------------------------------------------

      R M S  F L U C T U A T I O N S

 NSTEP =   500000   TIME(PS) =    1020.000  TEMP(K) =     1.27  PRESS =     0.0
 Etot   =       347.8929  EKtot   =       139.1630  EPtot      =       317.7434
 BOND   =        20.7359  ANGLE   =        30.1018  DIHED      =        14.1979
 1-4 NB =        10.4586  1-4 EEL =        30.5465  VDWAALS    =       244.8856
 EELEC  =       455.9328  EHBOND  =         0.0000  RESTRAINT  =        11.0313
 EAMBER (non-restraint)  =       306.7121
 EKCMT  =         0.0000  VIRIAL  =         0.0000  VOLUME     =      3322.2828
                                                    Density    =         0.0058
 Ewald error estimate:   0.3525E-04
 ------------------------------------------------------------------------------
