-------------------------------------------------------
          Amber 18 PMEMD                              2018
          -------------------------------------------------------

  [-O]verwriting output

File Assignments:

 Here is the input file:

1 ns unrestrained NPT equilibration using Langevin thermostat and MC barostat
&cntrl
  irest     = 1,
  ntx       = 5,
  ig        = -1,
  dt        = 0.002,
  nstlim    = 500000,
  nscm      = 500,
  ntr       = 0,
  ntb       = 2,
  ntp       = 1,
  barostat  = 2,
  pres0     = 1.0,
  mcbarint  = 100,
  comp      = 44.6,
  taup      = 1.0,
  ntt       = 3,
  temp0     = 298.0,
  gamma_ln  = 1.0,
  ntf       = 2,
  ntc       = 2,
  cut       = 10.0,
  ntpr      = 500,
  ntxo      = 2,
  ntwr      = 500000,
  ioutfm    = 1,
  ntwx      = 500,
  iwrap     = 1,
&end

Note: ig = -1. Setting random seed to    64779 based on wallclock time in
      microseconds and disabling the synchronization of random numbers
      between tasks to improve performance.

--------------------------------------------------------------------------------
   1.  RESOURCE   USE:
--------------------------------------------------------------------------------

 getting box info from netcdf restart file
 NATOM  =   55269 NTYPES =      18 NBONH =   53985 MBONA  =    1304
 NTHETH =    2972 MTHETA =    1762 NPHIH =    5674 MPHIA  =    6014
 NHPARM =       0 NPARM  =       0 NNB   =   84524 NRES   =   17727
 NBONA  =    1304 NTHETA =    1762 NPHIA =    6014 NUMBND =      86
 NUMANG =     201 NPTRA  =     426 NATYP =      44 NPHB   =       0
 IFBOX  =       2 NMXRS  =      24 IFCAP =       0 NEXTRA =       0
 NCOPY  =       0

     BOX TYPE: TRUNCATED OCTAHEDRON

--------------------------------------------------------------------------------
   2.  CONTROL  DATA  FOR  THE  RUN
--------------------------------------------------------------------------------

default_name

General flags:
     imin    =       0, nmropt  =       0

Nature and format of input:
     ntx     =       5, irest   =       1, ntrx    =       1

Nature and format of output:
     ntxo    =       2, ntpr    =     500, ntrx    =       1, ntwr    =  500000
     iwrap   =       1, ntwx    =     500, ntwv    =       0, ntwe    =       0
     ioutfm  =       1, ntwprt  =       0, idecomp =       0, rbornstat=      0

Potential function:
     ntf     =       2, ntb     =       2, igb     =       0, nsnb    =      25
     ipol    =       0, gbsa    =       0, iesp    =       0
     dielc   =   1.00000, cut     =  10.00000, intdiel =   1.00000

Frozen or restrained atoms:
     ibelly  =       0, ntr     =       0

Molecular dynamics:
     nstlim  =    500000, nscm    =       500, nrespa  =         1
     t       =   0.00000, dt      =   0.00200, vlimit  =  20.00000

Langevin dynamics temperature regulation:
     ig      =   64779
     temp0   = 298.00000, tempi   =   0.00000, gamma_ln=   1.00000

Pressure regulation:
     ntp     =       1
     pres0   =   1.00000, comp    =  44.60000, taup    =   1.00000
     Monte-Carlo Barostat:
     mcbarint  =     100

SHAKE:
     ntc     =       2, jfastw  =       0
     tol     =   0.00001

Ewald parameters:
     verbose =       0, ew_type =       0, nbflag  =       1, use_pme =       1
     vdwmeth =       1, eedmeth =       1, netfrc  =       1
     Box X =   89.355   Box Y =   89.355   Box Z =   89.355
     Alpha =  109.471   Beta  =  109.471   Gamma =  109.471
     NFFT1 =   90       NFFT2 =   90       NFFT3 =   90
     Cutoff=   10.000   Tol   =0.100E-04
     Ewald Coefficient =  0.27511
     Interpolation order =    4

--------------------------------------------------------------------------------
   3.  ATOMIC COORDINATES AND VELOCITIES
--------------------------------------------------------------------------------

default_name
 begin time read from input coords =  1020.000 ps

 Number of triangulated 3-point waters found:    17561

     Sum of charges from parm topology file =  -0.00001920
     Forcing neutrality...

--------------------------------------------------------------------------------
   4.  RESULTS
 NSTEP =      500   TIME(PS) =    1021.000  TEMP(K) =   299.08  PRESS =     0.0
 Etot   =   -171330.2037  EKtot   =     33229.3092  EPtot      =   -204559.5129
 BOND   =       525.9407  ANGLE   =      1468.3119  DIHED      =     -1322.0309
 1-4 NB =       611.9533  1-4 EEL =      9802.0990  VDWAALS    =     35617.6200
 EELEC  =   -251263.4069  EHBOND  =         0.0000  RESTRAINT  =         0.0000
 EKCMT  =         0.0000  VIRIAL  =         0.0000  VOLUME     =    549252.2717
                                                    Density    =         1.0121
 Ewald error estimate:   0.4712E-04
 ------------------------------------------------------------------------------

      A V E R A G E S   O V E R    1000 S T E P S

 NSTEP =   500000   TIME(PS) =    2020.000  TEMP(K) =   298.04  PRESS =     0.0
 Etot   =   -171712.4136  EKtot   =     33114.3012  EPtot      =   -204826.7148
 BOND   =       524.3403  ANGLE   =      1474.6568  DIHED      =     -1404.2806
 1-4 NB =       614.9319  1-4 EEL =      9831.0851  VDWAALS    =     35604.0531
 EELEC  =   -251471.5014  EHBOND  =         0.0000  RESTRAINT  =         0.0000
 EKCMT  =         0.0000  VIRIAL  =         0.0000  VOLUME     =    548126.6792
                                                    Density    =         1.0142
 Ewald error estimate:   0.4762E-04
 ------------------------------------------------------------------------------

      R M S  F L U C T U A T I O N S

 NSTEP =   500000   TIME(PS) =    2020.000  TEMP(K) =     1.29  PRESS =     0.0
 Etot   =       261.8659  EKtot   =       143.7357  EPtot      =       209.5607
 BOND   =        19.9538  ANGLE   =        29.3726  DIHED      =        18.7582
 1-4 NB =        10.2690  1-4 EEL =        34.9801  VDWAALS    =       250.8335
 EELEC  =       376.5600  EHBOND  =         0.0000  RESTRAINT  =         0.0000
 EKCMT  =         0.0000  VIRIAL  =         0.0000  VOLUME     =      1003.6663
                                                    Density    =         0.0019
 Ewald error estimate:   0.3480E-04
 ------------------------------------------------------------------------------
